     5
 geometry
 I                    -0.00000000     0.00000000     0.33566236
 C                     0.00000000     0.00000000    -1.83540985
 H                     0.73723810     0.73723810    -2.16726358
 H                    -1.00708598     0.26984787    -2.16726358
 H                     0.26984787    -1.00708598    -2.16726358
