     6
 geometry
 I                     0.00891508    -1.36966173    -0.00009725
 Cl                   -0.00171797     3.89266663    -0.00016041
 C                     0.01104817     0.89269380     0.00004266
 H                     0.47213198     1.18822088    -0.94140132
 H                    -1.03409036     1.19059461     0.07170131
 H                     0.59626071     1.18780486     0.86991495
